147
Ag 100.0 %= 147 atomos, Cu 0.0 %= 0 atomos
Ag -7.993605777301127e-15 4.440892098500626e-15 -8.114050314115637
Ag -7.993605777301127e-15 4.440892098500626e-15 -5.409366876077093
Ag -7.993605777301127e-15 4.440892098500626e-15 -2.7046834380385487
Ag -7.993605777301127e-15 4.440892098500626e-15 -3.552713678800501e-15
Ag -7.993605777301127e-15 4.440892098500626e-15 2.70468343803854
Ag -7.993605777301127e-15 4.440892098500626e-15 5.409366876077085
Ag -7.993605777301127e-15 4.440892098500626e-15 8.11405031411563
Ag 2.227683042282669 0.7238180974016881 -6.761708595096366
Ag 2.227683042282669 0.7238180974016881 -4.05702515705782
Ag 2.227683042282669 0.7238180974016881 -1.3523417190192761
Ag 2.227683042282669 0.7238180974016881 1.35234171901927
Ag 2.227683042282669 0.7238180974016881 4.057025157057813
Ag 2.227683042282669 0.7238180974016881 6.7617085950963585
Ag -7.993605777301127e-15 2.3423245665364174 -6.761708595096366
Ag -7.993605777301127e-15 2.3423245665364174 -4.05702515705782
Ag -7.993605777301127e-15 2.3423245665364174 -1.3523417190192761
Ag -7.993605777301127e-15 2.3423245665364174 1.35234171901927
Ag -7.993605777301127e-15 2.3423245665364174 4.057025157057813
Ag -7.993605777301127e-15 2.3423245665364174 6.7617085950963585
Ag -2.2276830422826857 0.7238180974016899 -6.761708595096366
Ag -2.2276830422826857 0.7238180974016899 -4.05702515705782
Ag -2.2276830422826857 0.7238180974016899 -1.3523417190192761
Ag -2.2276830422826857 0.7238180974016899 1.35234171901927
Ag -2.2276830422826857 0.7238180974016899 4.057025157057813
Ag -2.2276830422826857 0.7238180974016899 6.7617085950963585
Ag -1.3767838362924731 -1.8949803806698866 -6.761708595096366
Ag -1.3767838362924731 -1.8949803806698866 -4.05702515705782
Ag -1.3767838362924731 -1.8949803806698866 -1.3523417190192761
Ag -1.3767838362924731 -1.8949803806698866 1.35234171901927
Ag -1.3767838362924731 -1.8949803806698866 4.057025157057813
Ag -1.3767838362924731 -1.8949803806698866 6.7617085950963585
Ag 1.3767838362924536 -1.8949803806698866 -6.761708595096366
Ag 1.3767838362924536 -1.8949803806698866 -4.05702515705782
Ag 1.3767838362924536 -1.8949803806698866 -1.3523417190192761
Ag 1.3767838362924536 -1.8949803806698866 1.35234171901927
Ag 1.3767838362924536 -1.8949803806698866 4.057025157057813
Ag 1.3767838362924536 -1.8949803806698866 6.7617085950963585
Ag 4.455366084565346 1.4476361948033727 -5.409366876077093
Ag 4.455366084565346 1.4476361948033727 -2.7046834380385487
Ag 4.455366084565346 1.4476361948033727 -3.552713678800501e-15
Ag 4.455366084565346 1.4476361948033727 2.70468343803854
Ag 4.455366084565346 1.4476361948033727 5.409366876077085
Ag 2.227683042282669 3.0661426639381038 -5.409366876077093
Ag 2.227683042282669 3.0661426639381038 -2.7046834380385487
Ag 2.227683042282669 3.0661426639381038 -3.552713678800501e-15
Ag 2.227683042282669 3.0661426639381038 2.70468343803854
Ag 2.227683042282669 3.0661426639381038 5.409366876077085
Ag -7.993605777301127e-15 4.684649133072835 -5.409366876077093
Ag -7.993605777301127e-15 4.684649133072835 -2.7046834380385487
Ag -7.993605777301127e-15 4.684649133072835 -3.552713678800501e-15
Ag -7.993605777301127e-15 4.684649133072835 2.70468343803854
Ag -7.993605777301127e-15 4.684649133072835 5.409366876077085
Ag -2.2276830422826857 3.0661426639381038 -5.409366876077093
Ag -2.2276830422826857 3.0661426639381038 -2.7046834380385487
Ag -2.2276830422826857 3.0661426639381038 -3.552713678800501e-15
Ag -2.2276830422826857 3.0661426639381038 2.70468343803854
Ag -2.2276830422826857 3.0661426639381038 5.409366876077085
Ag -4.455366084565364 1.4476361948033736 -5.409366876077093
Ag -4.455366084565364 1.4476361948033736 -2.7046834380385487
Ag -4.455366084565364 1.4476361948033736 -3.552713678800501e-15
Ag -4.455366084565364 1.4476361948033736 2.70468343803854
Ag -4.455366084565364 1.4476361948033736 5.409366876077085
Ag -3.60446687857515 -1.1711622832682025 -5.409366876077093
Ag -3.60446687857515 -1.1711622832682025 -2.7046834380385487
Ag -3.60446687857515 -1.1711622832682025 -3.552713678800501e-15
Ag -3.60446687857515 -1.1711622832682025 2.70468343803854
Ag -3.60446687857515 -1.1711622832682025 5.409366876077085
Ag -2.7535676725849365 -3.7899607613397777 -5.409366876077093
Ag -2.7535676725849365 -3.7899607613397777 -2.7046834380385487
Ag -2.7535676725849365 -3.7899607613397777 -3.552713678800501e-15
Ag -2.7535676725849365 -3.7899607613397777 2.70468343803854
Ag -2.7535676725849365 -3.7899607613397777 5.409366876077085
Ag -9.769962616701378e-15 -3.7899607613397785 -5.409366876077093
Ag -9.769962616701378e-15 -3.7899607613397785 -2.7046834380385487
Ag -9.769962616701378e-15 -3.7899607613397785 -3.552713678800501e-15
Ag -9.769962616701378e-15 -3.7899607613397785 2.70468343803854
Ag -9.769962616701378e-15 -3.7899607613397785 5.409366876077085
Ag 2.7535676725849196 -3.7899607613397785 -5.409366876077093
Ag 2.7535676725849196 -3.7899607613397785 -2.7046834380385487
Ag 2.7535676725849196 -3.7899607613397785 -3.552713678800501e-15
Ag 2.7535676725849196 -3.7899607613397785 2.70468343803854
Ag 2.7535676725849196 -3.7899607613397785 5.409366876077085
Ag 3.6044668785751313 -1.1711622832682034 -5.409366876077093
Ag 3.6044668785751313 -1.1711622832682034 -2.7046834380385487
Ag 3.6044668785751313 -1.1711622832682034 -3.552713678800501e-15
Ag 3.6044668785751313 -1.1711622832682034 2.70468343803854
Ag 3.6044668785751313 -1.1711622832682034 5.409366876077085
Ag 6.683049126848026 2.1714542922050564 -4.05702515705782
Ag 6.683049126848026 2.1714542922050564 -1.3523417190192761
Ag 6.683049126848026 2.1714542922050564 1.35234171901927
Ag 6.683049126848026 2.1714542922050564 4.057025157057813
Ag 4.455366084565346 3.7899607613397865 -4.05702515705782
Ag 4.455366084565346 3.7899607613397865 -1.3523417190192761
Ag 4.455366084565346 3.7899607613397865 1.35234171901927
Ag 4.455366084565346 3.7899607613397865 4.057025157057813
Ag 2.2276830422826706 5.408467230474518 -4.05702515705782
Ag 2.2276830422826706 5.408467230474518 -1.3523417190192761
Ag 2.2276830422826706 5.408467230474518 1.35234171901927
Ag 2.2276830422826706 5.408467230474518 4.057025157057813
Ag -7.105427357601002e-15 7.026973699609247 -4.05702515705782
Ag -7.105427357601002e-15 7.026973699609247 -1.3523417190192761
Ag -7.105427357601002e-15 7.026973699609247 1.35234171901927
Ag -7.105427357601002e-15 7.026973699609247 4.057025157057813
Ag -2.2276830422826857 5.408467230474518 -4.05702515705782
Ag -2.2276830422826857 5.408467230474518 -1.3523417190192761
Ag -2.2276830422826857 5.408467230474518 1.35234171901927
Ag -2.2276830422826857 5.408467230474518 4.057025157057813
Ag -4.455366084565364 3.7899607613397865 -4.05702515705782
Ag -4.455366084565364 3.7899607613397865 -1.3523417190192761
Ag -4.455366084565364 3.7899607613397865 1.35234171901927
Ag -4.455366084565364 3.7899607613397865 4.057025157057813
Ag -6.683049126848042 2.1714542922050573 -4.05702515705782
Ag -6.683049126848042 2.1714542922050573 -1.3523417190192761
Ag -6.683049126848042 2.1714542922050573 1.35234171901927
Ag -6.683049126848042 2.1714542922050573 4.057025157057813
Ag -5.832149920857828 -0.4473441858665179 -4.05702515705782
Ag -5.832149920857828 -0.4473441858665179 -1.3523417190192761
Ag -5.832149920857828 -0.4473441858665179 1.35234171901927
Ag -5.832149920857828 -0.4473441858665179 4.057025157057813
Ag -4.981250714867615 -3.066142663938093 -4.05702515705782
Ag -4.981250714867615 -3.066142663938093 -1.3523417190192761
Ag -4.981250714867615 -3.066142663938093 1.35234171901927
Ag -4.981250714867615 -3.066142663938093 4.057025157057813
Ag -4.1303515088774 -5.684941142009669 -4.05702515705782
Ag -4.1303515088774 -5.684941142009669 -1.3523417190192761
Ag -4.1303515088774 -5.684941142009669 1.35234171901927
Ag -4.1303515088774 -5.684941142009669 4.057025157057813
Ag -1.3767838362924731 -5.684941142009669 -4.05702515705782
Ag -1.3767838362924731 -5.684941142009669 -1.3523417190192761
Ag -1.3767838362924731 -5.684941142009669 1.35234171901927
Ag -1.3767838362924731 -5.684941142009669 4.057025157057813
Ag 1.3767838362924536 -5.684941142009669 -4.05702515705782
Ag 1.3767838362924536 -5.684941142009669 -1.3523417190192761
Ag 1.3767838362924536 -5.684941142009669 1.35234171901927
Ag 1.3767838362924536 -5.684941142009669 4.057025157057813
Ag 4.130351508877382 -5.68494114200967 -4.05702515705782
Ag 4.130351508877382 -5.68494114200967 -1.3523417190192761
Ag 4.130351508877382 -5.68494114200967 1.35234171901927
Ag 4.130351508877382 -5.68494114200967 4.057025157057813
Ag 4.981250714867597 -3.066142663938095 -4.05702515705782
Ag 4.981250714867597 -3.066142663938095 -1.3523417190192761
Ag 4.981250714867597 -3.066142663938095 1.35234171901927
Ag 4.981250714867597 -3.066142663938095 4.057025157057813
Ag 5.8321499208578125 -0.4473441858665197 -4.05702515705782
Ag 5.8321499208578125 -0.4473441858665197 -1.3523417190192761
Ag 5.8321499208578125 -0.4473441858665197 1.35234171901927
Ag 5.8321499208578125 -0.4473441858665197 4.057025157057813
