605
Ag 100.0 %= 605 atomos, Cu 0.0 %= 0 atomos
Ag -7.105427357601002e-15 -1.9539925233402755e-14 -12.17107547117344
Ag -7.105427357601002e-15 -1.9539925233402755e-14 -9.466392033134895
Ag -7.105427357601002e-15 -1.9539925233402755e-14 -6.761708595096351
Ag -7.105427357601002e-15 -1.9539925233402755e-14 -4.057025157057806
Ag -7.105427357601002e-15 -1.9539925233402755e-14 -1.3523417190192628
Ag -7.105427357601002e-15 -1.9539925233402755e-14 1.3523417190192824
Ag -7.105427357601002e-15 -1.9539925233402755e-14 4.0570251570578275
Ag -7.105427357601002e-15 -1.9539925233402755e-14 6.7617085950963745
Ag -7.105427357601002e-15 -1.9539925233402755e-14 9.466392033134914
Ag -7.105427357601002e-15 -1.9539925233402755e-14 12.171075471173461
Ag 2.2276830422826706 0.723818097401665 -10.818733752154168
Ag 2.2276830422826706 0.723818097401665 -8.114050314115623
Ag 2.2276830422826706 0.723818097401665 -5.409366876077079
Ag 2.2276830422826706 0.723818097401665 -2.7046834380385327
Ag 2.2276830422826706 0.723818097401665 1.0658141036401503e-14
Ag 2.2276830422826706 0.723818097401665 2.704683438038556
Ag 2.2276830422826706 0.723818097401665 5.409366876077099
Ag 2.2276830422826706 0.723818097401665 8.114050314115643
Ag 2.2276830422826706 0.723818097401665 10.818733752154186
Ag -7.105427357601002e-15 2.342324566536396 -10.818733752154168
Ag -7.105427357601002e-15 2.342324566536396 -8.114050314115623
Ag -7.105427357601002e-15 2.342324566536396 -5.409366876077079
Ag -7.105427357601002e-15 2.342324566536396 -2.7046834380385327
Ag -7.105427357601002e-15 2.342324566536396 1.0658141036401503e-14
Ag -7.105427357601002e-15 2.342324566536396 2.704683438038556
Ag -7.105427357601002e-15 2.342324566536396 5.409366876077099
Ag -7.105427357601002e-15 2.342324566536396 8.114050314115643
Ag -7.105427357601002e-15 2.342324566536396 10.818733752154186
Ag -2.227683042282683 0.723818097401665 -10.818733752154168
Ag -2.227683042282683 0.723818097401665 -8.114050314115623
Ag -2.227683042282683 0.723818097401665 -5.409366876077079
Ag -2.227683042282683 0.723818097401665 -2.7046834380385327
Ag -2.227683042282683 0.723818097401665 1.0658141036401503e-14
Ag -2.227683042282683 0.723818097401665 2.704683438038556
Ag -2.227683042282683 0.723818097401665 5.409366876077099
Ag -2.227683042282683 0.723818097401665 8.114050314115643
Ag -2.227683042282683 0.723818097401665 10.818733752154186
Ag -1.3767838362924731 -1.8949803806699084 -10.818733752154168
Ag -1.3767838362924731 -1.8949803806699084 -8.114050314115623
Ag -1.3767838362924731 -1.8949803806699084 -5.409366876077079
Ag -1.3767838362924731 -1.8949803806699084 -2.7046834380385327
Ag -1.3767838362924731 -1.8949803806699084 1.0658141036401503e-14
Ag -1.3767838362924731 -1.8949803806699084 2.704683438038556
Ag -1.3767838362924731 -1.8949803806699084 5.409366876077099
Ag -1.3767838362924731 -1.8949803806699084 8.114050314115643
Ag -1.3767838362924731 -1.8949803806699084 10.818733752154186
Ag 1.3767838362924554 -1.894980380669912 -10.818733752154168
Ag 1.3767838362924554 -1.894980380669912 -8.114050314115623
Ag 1.3767838362924554 -1.894980380669912 -5.409366876077079
Ag 1.3767838362924554 -1.894980380669912 -2.7046834380385327
Ag 1.3767838362924554 -1.894980380669912 1.0658141036401503e-14
Ag 1.3767838362924554 -1.894980380669912 2.704683438038556
Ag 1.3767838362924554 -1.894980380669912 5.409366876077099
Ag 1.3767838362924554 -1.894980380669912 8.114050314115643
Ag 1.3767838362924554 -1.894980380669912 10.818733752154186
Ag 4.455366084565346 1.4476361948033478 -9.466392033134895
Ag 4.455366084565346 1.4476361948033478 -6.761708595096351
Ag 4.455366084565346 1.4476361948033478 -4.057025157057806
Ag 4.455366084565346 1.4476361948033478 -1.3523417190192628
Ag 4.455366084565346 1.4476361948033478 1.3523417190192824
Ag 4.455366084565346 1.4476361948033478 4.0570251570578275
Ag 4.455366084565346 1.4476361948033478 6.7617085950963745
Ag 4.455366084565346 1.4476361948033478 9.466392033134914
Ag 2.2276830422826706 3.066142663938079 -9.466392033134895
Ag 2.2276830422826706 3.066142663938079 -6.761708595096351
Ag 2.2276830422826706 3.066142663938079 -4.057025157057806
Ag 2.2276830422826706 3.066142663938079 -1.3523417190192628
Ag 2.2276830422826706 3.066142663938079 1.3523417190192824
Ag 2.2276830422826706 3.066142663938079 4.0570251570578275
Ag 2.2276830422826706 3.066142663938079 6.7617085950963745
Ag 2.2276830422826706 3.066142663938079 9.466392033134914
Ag -7.105427357601002e-15 4.684649133072806 -9.466392033134895
Ag -7.105427357601002e-15 4.684649133072806 -6.761708595096351
Ag -7.105427357601002e-15 4.684649133072806 -4.057025157057806
Ag -7.105427357601002e-15 4.684649133072806 -1.3523417190192628
Ag -7.105427357601002e-15 4.684649133072806 1.3523417190192824
Ag -7.105427357601002e-15 4.684649133072806 4.0570251570578275
Ag -7.105427357601002e-15 4.684649133072806 6.7617085950963745
Ag -7.105427357601002e-15 4.684649133072806 9.466392033134914
Ag -2.227683042282683 3.066142663938079 -9.466392033134895
Ag -2.227683042282683 3.066142663938079 -6.761708595096351
Ag -2.227683042282683 3.066142663938079 -4.057025157057806
Ag -2.227683042282683 3.066142663938079 -1.3523417190192628
Ag -2.227683042282683 3.066142663938079 1.3523417190192824
Ag -2.227683042282683 3.066142663938079 4.0570251570578275
Ag -2.227683042282683 3.066142663938079 6.7617085950963745
Ag -2.227683042282683 3.066142663938079 9.466392033134914
Ag -4.455366084565362 1.4476361948033514 -9.466392033134895
Ag -4.455366084565362 1.4476361948033514 -6.761708595096351
Ag -4.455366084565362 1.4476361948033514 -4.057025157057806
Ag -4.455366084565362 1.4476361948033514 -1.3523417190192628
Ag -4.455366084565362 1.4476361948033514 1.3523417190192824
Ag -4.455366084565362 1.4476361948033514 4.0570251570578275
Ag -4.455366084565362 1.4476361948033514 6.7617085950963745
Ag -4.455366084565362 1.4476361948033514 9.466392033134914
Ag -3.604466878575149 -1.1711622832682256 -9.466392033134895
Ag -3.604466878575149 -1.1711622832682256 -6.761708595096351
Ag -3.604466878575149 -1.1711622832682256 -4.057025157057806
Ag -3.604466878575149 -1.1711622832682256 -1.3523417190192628
Ag -3.604466878575149 -1.1711622832682256 1.3523417190192824
Ag -3.604466878575149 -1.1711622832682256 4.0570251570578275
Ag -3.604466878575149 -1.1711622832682256 6.7617085950963745
Ag -3.604466878575149 -1.1711622832682256 9.466392033134914
Ag -2.7535676725849374 -3.7899607613398016 -9.466392033134895
Ag -2.7535676725849374 -3.7899607613398016 -6.761708595096351
Ag -2.7535676725849374 -3.7899607613398016 -4.057025157057806
Ag -2.7535676725849374 -3.7899607613398016 -1.3523417190192628
Ag -2.7535676725849374 -3.7899607613398016 1.3523417190192824
Ag -2.7535676725849374 -3.7899607613398016 4.0570251570578275
Ag -2.7535676725849374 -3.7899607613398016 6.7617085950963745
Ag -2.7535676725849374 -3.7899607613398016 9.466392033134914
Ag -7.105427357601002e-15 -3.7899607613398016 -9.466392033134895
Ag -7.105427357601002e-15 -3.7899607613398016 -6.761708595096351
Ag -7.105427357601002e-15 -3.7899607613398016 -4.057025157057806
Ag -7.105427357601002e-15 -3.7899607613398016 -1.3523417190192628
Ag -7.105427357601002e-15 -3.7899607613398016 1.3523417190192824
Ag -7.105427357601002e-15 -3.7899607613398016 4.0570251570578275
Ag -7.105427357601002e-15 -3.7899607613398016 6.7617085950963745
Ag -7.105427357601002e-15 -3.7899607613398016 9.466392033134914
Ag 2.753567672584916 -3.7899607613398016 -9.466392033134895
Ag 2.753567672584916 -3.7899607613398016 -6.761708595096351
Ag 2.753567672584916 -3.7899607613398016 -4.057025157057806
Ag 2.753567672584916 -3.7899607613398016 -1.3523417190192628
Ag 2.753567672584916 -3.7899607613398016 1.3523417190192824
Ag 2.753567672584916 -3.7899607613398016 4.0570251570578275
Ag 2.753567672584916 -3.7899607613398016 6.7617085950963745
Ag 2.753567672584916 -3.7899607613398016 9.466392033134914
Ag 3.604466878575133 -1.1711622832682256 -9.466392033134895
Ag 3.604466878575133 -1.1711622832682256 -6.761708595096351
Ag 3.604466878575133 -1.1711622832682256 -4.057025157057806
Ag 3.604466878575133 -1.1711622832682256 -1.3523417190192628
Ag 3.604466878575133 -1.1711622832682256 1.3523417190192824
Ag 3.604466878575133 -1.1711622832682256 4.0570251570578275
Ag 3.604466878575133 -1.1711622832682256 6.7617085950963745
Ag 3.604466878575133 -1.1711622832682256 9.466392033134914
Ag 6.683049126848028 2.1714542922050324 -8.114050314115623
Ag 6.683049126848028 2.1714542922050324 -5.409366876077079
Ag 6.683049126848028 2.1714542922050324 -2.7046834380385327
Ag 6.683049126848028 2.1714542922050324 1.0658141036401503e-14
Ag 6.683049126848028 2.1714542922050324 2.704683438038556
Ag 6.683049126848028 2.1714542922050324 5.409366876077099
Ag 6.683049126848028 2.1714542922050324 8.114050314115643
Ag 4.455366084565346 3.7899607613397652 -8.114050314115623
Ag 4.455366084565346 3.7899607613397652 -5.409366876077079
Ag 4.455366084565346 3.7899607613397652 -2.7046834380385327
Ag 4.455366084565346 3.7899607613397652 1.0658141036401503e-14
Ag 4.455366084565346 3.7899607613397652 2.704683438038556
Ag 4.455366084565346 3.7899607613397652 5.409366876077099
Ag 4.455366084565346 3.7899607613397652 8.114050314115643
Ag 2.2276830422826706 5.408467230474493 -8.114050314115623
Ag 2.2276830422826706 5.408467230474493 -5.409366876077079
Ag 2.2276830422826706 5.408467230474493 -2.7046834380385327
Ag 2.2276830422826706 5.408467230474493 1.0658141036401503e-14
Ag 2.2276830422826706 5.408467230474493 2.704683438038556
Ag 2.2276830422826706 5.408467230474493 5.409366876077099
Ag 2.2276830422826706 5.408467230474493 8.114050314115643
Ag -7.105427357601002e-15 7.026973699609222 -8.114050314115623
Ag -7.105427357601002e-15 7.026973699609222 -5.409366876077079
Ag -7.105427357601002e-15 7.026973699609222 -2.7046834380385327
Ag -7.105427357601002e-15 7.026973699609222 1.0658141036401503e-14
Ag -7.105427357601002e-15 7.026973699609222 2.704683438038556
Ag -7.105427357601002e-15 7.026973699609222 5.409366876077099
Ag -7.105427357601002e-15 7.026973699609222 8.114050314115643
Ag -2.227683042282683 5.408467230474493 -8.114050314115623
Ag -2.227683042282683 5.408467230474493 -5.409366876077079
Ag -2.227683042282683 5.408467230474493 -2.7046834380385327
Ag -2.227683042282683 5.408467230474493 1.0658141036401503e-14
Ag -2.227683042282683 5.408467230474493 2.704683438038556
Ag -2.227683042282683 5.408467230474493 5.409366876077099
Ag -2.227683042282683 5.408467230474493 8.114050314115643
Ag -4.455366084565362 3.7899607613397652 -8.114050314115623
Ag -4.455366084565362 3.7899607613397652 -5.409366876077079
Ag -4.455366084565362 3.7899607613397652 -2.7046834380385327
Ag -4.455366084565362 3.7899607613397652 1.0658141036401503e-14
Ag -4.455366084565362 3.7899607613397652 2.704683438038556
Ag -4.455366084565362 3.7899607613397652 5.409366876077099
Ag -4.455366084565362 3.7899607613397652 8.114050314115643
Ag -6.683049126848041 2.171454292205034 -8.114050314115623
Ag -6.683049126848041 2.171454292205034 -5.409366876077079
Ag -6.683049126848041 2.171454292205034 -2.7046834380385327
Ag -6.683049126848041 2.171454292205034 1.0658141036401503e-14
Ag -6.683049126848041 2.171454292205034 2.704683438038556
Ag -6.683049126848041 2.171454292205034 5.409366876077099
Ag -6.683049126848041 2.171454292205034 8.114050314115643
Ag -5.832149920857828 -0.44734418586653923 -8.114050314115623
Ag -5.832149920857828 -0.44734418586653923 -5.409366876077079
Ag -5.832149920857828 -0.44734418586653923 -2.7046834380385327
Ag -5.832149920857828 -0.44734418586653923 1.0658141036401503e-14
Ag -5.832149920857828 -0.44734418586653923 2.704683438038556
Ag -5.832149920857828 -0.44734418586653923 5.409366876077099
Ag -5.832149920857828 -0.44734418586653923 8.114050314115643
Ag -4.981250714867615 -3.066142663938116 -8.114050314115623
Ag -4.981250714867615 -3.066142663938116 -5.409366876077079
Ag -4.981250714867615 -3.066142663938116 -2.7046834380385327
Ag -4.981250714867615 -3.066142663938116 1.0658141036401503e-14
Ag -4.981250714867615 -3.066142663938116 2.704683438038556
Ag -4.981250714867615 -3.066142663938116 5.409366876077099
Ag -4.981250714867615 -3.066142663938116 8.114050314115643
Ag -4.1303515088774 -5.684941142009692 -8.114050314115623
Ag -4.1303515088774 -5.684941142009692 -5.409366876077079
Ag -4.1303515088774 -5.684941142009692 -2.7046834380385327
Ag -4.1303515088774 -5.684941142009692 1.0658141036401503e-14
Ag -4.1303515088774 -5.684941142009692 2.704683438038556
Ag -4.1303515088774 -5.684941142009692 5.409366876077099
Ag -4.1303515088774 -5.684941142009692 8.114050314115643
Ag -1.3767838362924731 -5.684941142009692 -8.114050314115623
Ag -1.3767838362924731 -5.684941142009692 -5.409366876077079
Ag -1.3767838362924731 -5.684941142009692 -2.7046834380385327
Ag -1.3767838362924731 -5.684941142009692 1.0658141036401503e-14
Ag -1.3767838362924731 -5.684941142009692 2.704683438038556
Ag -1.3767838362924731 -5.684941142009692 5.409366876077099
Ag -1.3767838362924731 -5.684941142009692 8.114050314115643
Ag 1.3767838362924554 -5.684941142009692 -8.114050314115623
Ag 1.3767838362924554 -5.684941142009692 -5.409366876077079
Ag 1.3767838362924554 -5.684941142009692 -2.7046834380385327
Ag 1.3767838362924554 -5.684941142009692 1.0658141036401503e-14
Ag 1.3767838362924554 -5.684941142009692 2.704683438038556
Ag 1.3767838362924554 -5.684941142009692 5.409366876077099
Ag 1.3767838362924554 -5.684941142009692 8.114050314115643
Ag 4.130351508877384 -5.684941142009694 -8.114050314115623
Ag 4.130351508877384 -5.684941142009694 -5.409366876077079
Ag 4.130351508877384 -5.684941142009694 -2.7046834380385327
Ag 4.130351508877384 -5.684941142009694 1.0658141036401503e-14
Ag 4.130351508877384 -5.684941142009694 2.704683438038556
Ag 4.130351508877384 -5.684941142009694 5.409366876077099
Ag 4.130351508877384 -5.684941142009694 8.114050314115643
Ag 4.981250714867597 -3.066142663938118 -8.114050314115623
Ag 4.981250714867597 -3.066142663938118 -5.409366876077079
Ag 4.981250714867597 -3.066142663938118 -2.7046834380385327
Ag 4.981250714867597 -3.066142663938118 1.0658141036401503e-14
Ag 4.981250714867597 -3.066142663938118 2.704683438038556
Ag 4.981250714867597 -3.066142663938118 5.409366876077099
Ag 4.981250714867597 -3.066142663938118 8.114050314115643
Ag 5.832149920857814 -0.4473441858665428 -8.114050314115623
Ag 5.832149920857814 -0.4473441858665428 -5.409366876077079
Ag 5.832149920857814 -0.4473441858665428 -2.7046834380385327
Ag 5.832149920857814 -0.4473441858665428 1.0658141036401503e-14
Ag 5.832149920857814 -0.4473441858665428 2.704683438038556
Ag 5.832149920857814 -0.4473441858665428 5.409366876077099
Ag 5.832149920857814 -0.4473441858665428 8.114050314115643
Ag 8.910732169130702 2.895272389606717 -6.761708595096351
Ag 8.910732169130702 2.895272389606717 -4.057025157057806
Ag 8.910732169130702 2.895272389606717 -1.3523417190192628
Ag 8.910732169130702 2.895272389606717 1.3523417190192824
Ag 8.910732169130702 2.895272389606717 4.0570251570578275
Ag 8.910732169130702 2.895272389606717 6.7617085950963745
Ag 6.683049126848028 4.513778858741446 -6.761708595096351
Ag 6.683049126848028 4.513778858741446 -4.057025157057806
Ag 6.683049126848028 4.513778858741446 -1.3523417190192628
Ag 6.683049126848028 4.513778858741446 1.3523417190192824
Ag 6.683049126848028 4.513778858741446 4.0570251570578275
Ag 6.683049126848028 4.513778858741446 6.7617085950963745
Ag 4.455366084565346 6.132285327876179 -6.761708595096351
Ag 4.455366084565346 6.132285327876179 -4.057025157057806
Ag 4.455366084565346 6.132285327876179 -1.3523417190192628
Ag 4.455366084565346 6.132285327876179 1.3523417190192824
Ag 4.455366084565346 6.132285327876179 4.0570251570578275
Ag 4.455366084565346 6.132285327876179 6.7617085950963745
Ag 2.2276830422826706 7.750791797010905 -6.761708595096351
Ag 2.2276830422826706 7.750791797010905 -4.057025157057806
Ag 2.2276830422826706 7.750791797010905 -1.3523417190192628
Ag 2.2276830422826706 7.750791797010905 1.3523417190192824
Ag 2.2276830422826706 7.750791797010905 4.0570251570578275
Ag 2.2276830422826706 7.750791797010905 6.7617085950963745
Ag -7.105427357601002e-15 9.369298266145641 -6.761708595096351
Ag -7.105427357601002e-15 9.369298266145641 -4.057025157057806
Ag -7.105427357601002e-15 9.369298266145641 -1.3523417190192628
Ag -7.105427357601002e-15 9.369298266145641 1.3523417190192824
Ag -7.105427357601002e-15 9.369298266145641 4.0570251570578275
Ag -7.105427357601002e-15 9.369298266145641 6.7617085950963745
Ag -2.227683042282683 7.750791797010905 -6.761708595096351
Ag -2.227683042282683 7.750791797010905 -4.057025157057806
Ag -2.227683042282683 7.750791797010905 -1.3523417190192628
Ag -2.227683042282683 7.750791797010905 1.3523417190192824
Ag -2.227683042282683 7.750791797010905 4.0570251570578275
Ag -2.227683042282683 7.750791797010905 6.7617085950963745
Ag -4.455366084565362 6.132285327876179 -6.761708595096351
Ag -4.455366084565362 6.132285327876179 -4.057025157057806
Ag -4.455366084565362 6.132285327876179 -1.3523417190192628
Ag -4.455366084565362 6.132285327876179 1.3523417190192824
Ag -4.455366084565362 6.132285327876179 4.0570251570578275
Ag -4.455366084565362 6.132285327876179 6.7617085950963745
Ag -6.683049126848041 4.513778858741446 -6.761708595096351
Ag -6.683049126848041 4.513778858741446 -4.057025157057806
Ag -6.683049126848041 4.513778858741446 -1.3523417190192628
Ag -6.683049126848041 4.513778858741446 1.3523417190192824
Ag -6.683049126848041 4.513778858741446 4.0570251570578275
Ag -6.683049126848041 4.513778858741446 6.7617085950963745
Ag -8.910732169130718 2.8952723896067187 -6.761708595096351
Ag -8.910732169130718 2.8952723896067187 -4.057025157057806
Ag -8.910732169130718 2.8952723896067187 -1.3523417190192628
Ag -8.910732169130718 2.8952723896067187 1.3523417190192824
Ag -8.910732169130718 2.8952723896067187 4.0570251570578275
Ag -8.910732169130718 2.8952723896067187 6.7617085950963745
Ag -8.059832963140506 0.27647391153514356 -6.761708595096351
Ag -8.059832963140506 0.27647391153514356 -4.057025157057806
Ag -8.059832963140506 0.27647391153514356 -1.3523417190192628
Ag -8.059832963140506 0.27647391153514356 1.3523417190192824
Ag -8.059832963140506 0.27647391153514356 4.0570251570578275
Ag -8.059832963140506 0.27647391153514356 6.7617085950963745
Ag -7.208933757150291 -2.3423245665364334 -6.761708595096351
Ag -7.208933757150291 -2.3423245665364334 -4.057025157057806
Ag -7.208933757150291 -2.3423245665364334 -1.3523417190192628
Ag -7.208933757150291 -2.3423245665364334 1.3523417190192824
Ag -7.208933757150291 -2.3423245665364334 4.0570251570578275
Ag -7.208933757150291 -2.3423245665364334 6.7617085950963745
Ag -6.3580345511600775 -4.961123044608009 -6.761708595096351
Ag -6.3580345511600775 -4.961123044608009 -4.057025157057806
Ag -6.3580345511600775 -4.961123044608009 -1.3523417190192628
Ag -6.3580345511600775 -4.961123044608009 1.3523417190192824
Ag -6.3580345511600775 -4.961123044608009 4.0570251570578275
Ag -6.3580345511600775 -4.961123044608009 6.7617085950963745
Ag -5.507135345169864 -7.579921522679584 -6.761708595096351
Ag -5.507135345169864 -7.579921522679584 -4.057025157057806
Ag -5.507135345169864 -7.579921522679584 -1.3523417190192628
Ag -5.507135345169864 -7.579921522679584 1.3523417190192824
Ag -5.507135345169864 -7.579921522679584 4.0570251570578275
Ag -5.507135345169864 -7.579921522679584 6.7617085950963745
Ag -2.7535676725849374 -7.5799215226795855 -6.761708595096351
Ag -2.7535676725849374 -7.5799215226795855 -4.057025157057806
Ag -2.7535676725849374 -7.5799215226795855 -1.3523417190192628
Ag -2.7535676725849374 -7.5799215226795855 1.3523417190192824
Ag -2.7535676725849374 -7.5799215226795855 4.0570251570578275
Ag -2.7535676725849374 -7.5799215226795855 6.7617085950963745
Ag -1.0658141036401503e-14 -7.5799215226795855 -6.761708595096351
Ag -1.0658141036401503e-14 -7.5799215226795855 -4.057025157057806
Ag -1.0658141036401503e-14 -7.5799215226795855 -1.3523417190192628
Ag -1.0658141036401503e-14 -7.5799215226795855 1.3523417190192824
Ag -1.0658141036401503e-14 -7.5799215226795855 4.0570251570578275
Ag -1.0658141036401503e-14 -7.5799215226795855 6.7617085950963745
Ag 2.753567672584916 -7.5799215226795855 -6.761708595096351
Ag 2.753567672584916 -7.5799215226795855 -4.057025157057806
Ag 2.753567672584916 -7.5799215226795855 -1.3523417190192628
Ag 2.753567672584916 -7.5799215226795855 1.3523417190192824
Ag 2.753567672584916 -7.5799215226795855 4.0570251570578275
Ag 2.753567672584916 -7.5799215226795855 6.7617085950963745
Ag 5.507135345169848 -7.5799215226795855 -6.761708595096351
Ag 5.507135345169848 -7.5799215226795855 -4.057025157057806
Ag 5.507135345169848 -7.5799215226795855 -1.3523417190192628
Ag 5.507135345169848 -7.5799215226795855 1.3523417190192824
Ag 5.507135345169848 -7.5799215226795855 4.0570251570578275
Ag 5.507135345169848 -7.5799215226795855 6.7617085950963745
Ag 6.358034551160058 -4.96112304460801 -6.761708595096351
Ag 6.358034551160058 -4.96112304460801 -4.057025157057806
Ag 6.358034551160058 -4.96112304460801 -1.3523417190192628
Ag 6.358034551160058 -4.96112304460801 1.3523417190192824
Ag 6.358034551160058 -4.96112304460801 4.0570251570578275
Ag 6.358034551160058 -4.96112304460801 6.7617085950963745
Ag 7.208933757150271 -2.342324566536435 -6.761708595096351
Ag 7.208933757150271 -2.342324566536435 -4.057025157057806
Ag 7.208933757150271 -2.342324566536435 -1.3523417190192628
Ag 7.208933757150271 -2.342324566536435 1.3523417190192824
Ag 7.208933757150271 -2.342324566536435 4.0570251570578275
Ag 7.208933757150271 -2.342324566536435 6.7617085950963745
Ag 8.059832963140485 0.2764739115351418 -6.761708595096351
Ag 8.059832963140485 0.2764739115351418 -4.057025157057806
Ag 8.059832963140485 0.2764739115351418 -1.3523417190192628
Ag 8.059832963140485 0.2764739115351418 1.3523417190192824
Ag 8.059832963140485 0.2764739115351418 4.0570251570578275
Ag 8.059832963140485 0.2764739115351418 6.7617085950963745
Ag 11.138415211413383 3.6190904870083997 -5.409366876077079
Ag 11.138415211413383 3.6190904870083997 -2.7046834380385327
Ag 11.138415211413383 3.6190904870083997 1.0658141036401503e-14
Ag 11.138415211413383 3.6190904870083997 2.704683438038556
Ag 11.138415211413383 3.6190904870083997 5.409366876077099
Ag 8.910732169130702 5.237596956143133 -5.409366876077079
Ag 8.910732169130702 5.237596956143133 -2.7046834380385327
Ag 8.910732169130702 5.237596956143133 1.0658141036401503e-14
Ag 8.910732169130702 5.237596956143133 2.704683438038556
Ag 8.910732169130702 5.237596956143133 5.409366876077099
Ag 6.683049126848028 6.856103425277858 -5.409366876077079
Ag 6.683049126848028 6.856103425277858 -2.7046834380385327
Ag 6.683049126848028 6.856103425277858 1.0658141036401503e-14
Ag 6.683049126848028 6.856103425277858 2.704683438038556
Ag 6.683049126848028 6.856103425277858 5.409366876077099
Ag 4.45536608456535 8.474609894412591 -5.409366876077079
Ag 4.45536608456535 8.474609894412591 -2.7046834380385327
Ag 4.45536608456535 8.474609894412591 1.0658141036401503e-14
Ag 4.45536608456535 8.474609894412591 2.704683438038556
Ag 4.45536608456535 8.474609894412591 5.409366876077099
Ag 2.2276830422826706 10.093116363547324 -5.409366876077079
Ag 2.2276830422826706 10.093116363547324 -2.7046834380385327
Ag 2.2276830422826706 10.093116363547324 1.0658141036401503e-14
Ag 2.2276830422826706 10.093116363547324 2.704683438038556
Ag 2.2276830422826706 10.093116363547324 5.409366876077099
Ag -7.105427357601002e-15 11.711622832682053 -5.409366876077079
Ag -7.105427357601002e-15 11.711622832682053 -2.7046834380385327
Ag -7.105427357601002e-15 11.711622832682053 1.0658141036401503e-14
Ag -7.105427357601002e-15 11.711622832682053 2.704683438038556
Ag -7.105427357601002e-15 11.711622832682053 5.409366876077099
Ag -2.227683042282683 10.093116363547324 -5.409366876077079
Ag -2.227683042282683 10.093116363547324 -2.7046834380385327
Ag -2.227683042282683 10.093116363547324 1.0658141036401503e-14
Ag -2.227683042282683 10.093116363547324 2.704683438038556
Ag -2.227683042282683 10.093116363547324 5.409366876077099
Ag -4.455366084565362 8.474609894412591 -5.409366876077079
Ag -4.455366084565362 8.474609894412591 -2.7046834380385327
Ag -4.455366084565362 8.474609894412591 1.0658141036401503e-14
Ag -4.455366084565362 8.474609894412591 2.704683438038556
Ag -4.455366084565362 8.474609894412591 5.409366876077099
Ag -6.683049126848041 6.856103425277865 -5.409366876077079
Ag -6.683049126848041 6.856103425277865 -2.7046834380385327
Ag -6.683049126848041 6.856103425277865 1.0658141036401503e-14
Ag -6.683049126848041 6.856103425277865 2.704683438038556
Ag -6.683049126848041 6.856103425277865 5.409366876077099
Ag -8.910732169130718 5.237596956143133 -5.409366876077079
Ag -8.910732169130718 5.237596956143133 -2.7046834380385327
Ag -8.910732169130718 5.237596956143133 1.0658141036401503e-14
Ag -8.910732169130718 5.237596956143133 2.704683438038556
Ag -8.910732169130718 5.237596956143133 5.409366876077099
Ag -11.138415211413395 3.619090487008405 -5.409366876077079
Ag -11.138415211413395 3.619090487008405 -2.7046834380385327
Ag -11.138415211413395 3.619090487008405 1.0658141036401503e-14
Ag -11.138415211413395 3.619090487008405 2.704683438038556
Ag -11.138415211413395 3.619090487008405 5.409366876077099
Ag -10.287516005423182 1.0002920089368281 -5.409366876077079
Ag -10.287516005423182 1.0002920089368281 -2.7046834380385327
Ag -10.287516005423182 1.0002920089368281 1.0658141036401503e-14
Ag -10.287516005423182 1.0002920089368281 2.704683438038556
Ag -10.287516005423182 1.0002920089368281 5.409366876077099
Ag -9.43661679943297 -1.6185064691347488 -5.409366876077079
Ag -9.43661679943297 -1.6185064691347488 -2.7046834380385327
Ag -9.43661679943297 -1.6185064691347488 1.0658141036401503e-14
Ag -9.43661679943297 -1.6185064691347488 2.704683438038556
Ag -9.43661679943297 -1.6185064691347488 5.409366876077099
Ag -8.585717593442755 -4.237304947206324 -5.409366876077079
Ag -8.585717593442755 -4.237304947206324 -2.7046834380385327
Ag -8.585717593442755 -4.237304947206324 1.0658141036401503e-14
Ag -8.585717593442755 -4.237304947206324 2.704683438038556
Ag -8.585717593442755 -4.237304947206324 5.409366876077099
Ag -7.734818387452542 -6.856103425277899 -5.409366876077079
Ag -7.734818387452542 -6.856103425277899 -2.7046834380385327
Ag -7.734818387452542 -6.856103425277899 1.0658141036401503e-14
Ag -7.734818387452542 -6.856103425277899 2.704683438038556
Ag -7.734818387452542 -6.856103425277899 5.409366876077099
Ag -6.883919181462329 -9.474901903349474 -5.409366876077079
Ag -6.883919181462329 -9.474901903349474 -2.7046834380385327
Ag -6.883919181462329 -9.474901903349474 1.0658141036401503e-14
Ag -6.883919181462329 -9.474901903349474 2.704683438038556
Ag -6.883919181462329 -9.474901903349474 5.409366876077099
Ag -4.130351508877402 -9.474901903349476 -5.409366876077079
Ag -4.130351508877402 -9.474901903349476 -2.7046834380385327
Ag -4.130351508877402 -9.474901903349476 1.0658141036401503e-14
Ag -4.130351508877402 -9.474901903349476 2.704683438038556
Ag -4.130351508877402 -9.474901903349476 5.409366876077099
Ag -1.3767838362924731 -9.474901903349476 -5.409366876077079
Ag -1.3767838362924731 -9.474901903349476 -2.7046834380385327
Ag -1.3767838362924731 -9.474901903349476 1.0658141036401503e-14
Ag -1.3767838362924731 -9.474901903349476 2.704683438038556
Ag -1.3767838362924731 -9.474901903349476 5.409366876077099
Ag 1.3767838362924518 -9.474901903349476 -5.409366876077079
Ag 1.3767838362924518 -9.474901903349476 -2.7046834380385327
Ag 1.3767838362924518 -9.474901903349476 1.0658141036401503e-14
Ag 1.3767838362924518 -9.474901903349476 2.704683438038556
Ag 1.3767838362924518 -9.474901903349476 5.409366876077099
Ag 4.130351508877384 -9.474901903349476 -5.409366876077079
Ag 4.130351508877384 -9.474901903349476 -2.7046834380385327
Ag 4.130351508877384 -9.474901903349476 1.0658141036401503e-14
Ag 4.130351508877384 -9.474901903349476 2.704683438038556
Ag 4.130351508877384 -9.474901903349476 5.409366876077099
Ag 6.883919181462312 -9.474901903349476 -5.409366876077079
Ag 6.883919181462312 -9.474901903349476 -2.7046834380385327
Ag 6.883919181462312 -9.474901903349476 1.0658141036401503e-14
Ag 6.883919181462312 -9.474901903349476 2.704683438038556
Ag 6.883919181462312 -9.474901903349476 5.409366876077099
Ag 7.734818387452526 -6.856103425277902 -5.409366876077079
Ag 7.734818387452526 -6.856103425277902 -2.7046834380385327
Ag 7.734818387452526 -6.856103425277902 1.0658141036401503e-14
Ag 7.734818387452526 -6.856103425277902 2.704683438038556
Ag 7.734818387452526 -6.856103425277902 5.409366876077099
Ag 8.585717593442736 -4.237304947206326 -5.409366876077079
Ag 8.585717593442736 -4.237304947206326 -2.7046834380385327
Ag 8.585717593442736 -4.237304947206326 1.0658141036401503e-14
Ag 8.585717593442736 -4.237304947206326 2.704683438038556
Ag 8.585717593442736 -4.237304947206326 5.409366876077099
Ag 9.436616799432953 -1.6185064691347506 -5.409366876077079
Ag 9.436616799432953 -1.6185064691347506 -2.7046834380385327
Ag 9.436616799432953 -1.6185064691347506 1.0658141036401503e-14
Ag 9.436616799432953 -1.6185064691347506 2.704683438038556
Ag 9.436616799432953 -1.6185064691347506 5.409366876077099
Ag 10.287516005423166 1.0002920089368228 -5.409366876077079
Ag 10.287516005423166 1.0002920089368228 -2.7046834380385327
Ag 10.287516005423166 1.0002920089368228 1.0658141036401503e-14
Ag 10.287516005423166 1.0002920089368228 2.704683438038556
Ag 10.287516005423166 1.0002920089368228 5.409366876077099
Ag 13.36609825369606 4.342908584410084 -4.057025157057806
Ag 13.36609825369606 4.342908584410084 -1.3523417190192628
Ag 13.36609825369606 4.342908584410084 1.3523417190192824
Ag 13.36609825369606 4.342908584410084 4.0570251570578275
Ag 11.138415211413383 5.961415053544812 -4.057025157057806
Ag 11.138415211413383 5.961415053544812 -1.3523417190192628
Ag 11.138415211413383 5.961415053544812 1.3523417190192824
Ag 11.138415211413383 5.961415053544812 4.0570251570578275
Ag 8.910732169130702 7.579921522679545 -4.057025157057806
Ag 8.910732169130702 7.579921522679545 -1.3523417190192628
Ag 8.910732169130702 7.579921522679545 1.3523417190192824
Ag 8.910732169130702 7.579921522679545 4.0570251570578275
Ag 6.683049126848028 9.19842799181427 -4.057025157057806
Ag 6.683049126848028 9.19842799181427 -1.3523417190192628
Ag 6.683049126848028 9.19842799181427 1.3523417190192824
Ag 6.683049126848028 9.19842799181427 4.0570251570578275
Ag 4.45536608456535 10.816934460949007 -4.057025157057806
Ag 4.45536608456535 10.816934460949007 -1.3523417190192628
Ag 4.45536608456535 10.816934460949007 1.3523417190192824
Ag 4.45536608456535 10.816934460949007 4.0570251570578275
Ag 2.2276830422826706 12.43544093008374 -4.057025157057806
Ag 2.2276830422826706 12.43544093008374 -1.3523417190192628
Ag 2.2276830422826706 12.43544093008374 1.3523417190192824
Ag 2.2276830422826706 12.43544093008374 4.0570251570578275
Ag -5.329070518200751e-15 14.053947399218465 -4.057025157057806
Ag -5.329070518200751e-15 14.053947399218465 -1.3523417190192628
Ag -5.329070518200751e-15 14.053947399218465 1.3523417190192824
Ag -5.329070518200751e-15 14.053947399218465 4.0570251570578275
Ag -2.227683042282683 12.43544093008374 -4.057025157057806
Ag -2.227683042282683 12.43544093008374 -1.3523417190192628
Ag -2.227683042282683 12.43544093008374 1.3523417190192824
Ag -2.227683042282683 12.43544093008374 4.0570251570578275
Ag -4.455366084565362 10.816934460949007 -4.057025157057806
Ag -4.455366084565362 10.816934460949007 -1.3523417190192628
Ag -4.455366084565362 10.816934460949007 1.3523417190192824
Ag -4.455366084565362 10.816934460949007 4.0570251570578275
Ag -6.68304912684804 9.198427991814278 -4.057025157057806
Ag -6.68304912684804 9.198427991814278 -1.3523417190192628
Ag -6.68304912684804 9.198427991814278 1.3523417190192824
Ag -6.68304912684804 9.198427991814278 4.0570251570578275
Ag -8.910732169130718 7.579921522679545 -4.057025157057806
Ag -8.910732169130718 7.579921522679545 -1.3523417190192628
Ag -8.910732169130718 7.579921522679545 1.3523417190192824
Ag -8.910732169130718 7.579921522679545 4.0570251570578275
Ag -11.138415211413395 5.961415053544819 -4.057025157057806
Ag -11.138415211413395 5.961415053544819 -1.3523417190192628
Ag -11.138415211413395 5.961415053544819 1.3523417190192824
Ag -11.138415211413395 5.961415053544819 4.0570251570578275
Ag -13.366098253696075 4.342908584410086 -4.057025157057806
Ag -13.366098253696075 4.342908584410086 -1.3523417190192628
Ag -13.366098253696075 4.342908584410086 1.3523417190192824
Ag -13.366098253696075 4.342908584410086 4.0570251570578275
Ag -12.51519904770586 1.7241101063385145 -4.057025157057806
Ag -12.51519904770586 1.7241101063385145 -1.3523417190192628
Ag -12.51519904770586 1.7241101063385145 1.3523417190192824
Ag -12.51519904770586 1.7241101063385145 4.0570251570578275
Ag -11.664299841715646 -0.8946883717330643 -4.057025157057806
Ag -11.664299841715646 -0.8946883717330643 -1.3523417190192628
Ag -11.664299841715646 -0.8946883717330643 1.3523417190192824
Ag -11.664299841715646 -0.8946883717330643 4.0570251570578275
Ag -10.813400635725433 -3.5134868498046385 -4.057025157057806
Ag -10.813400635725433 -3.5134868498046385 -1.3523417190192628
Ag -10.813400635725433 -3.5134868498046385 1.3523417190192824
Ag -10.813400635725433 -3.5134868498046385 4.0570251570578275
Ag -9.962501429735221 -6.132285327876215 -4.057025157057806
Ag -9.962501429735221 -6.132285327876215 -1.3523417190192628
Ag -9.962501429735221 -6.132285327876215 1.3523417190192824
Ag -9.962501429735221 -6.132285327876215 4.0570251570578275
Ag -9.111602223745006 -8.75108380594779 -4.057025157057806
Ag -9.111602223745006 -8.75108380594779 -1.3523417190192628
Ag -9.111602223745006 -8.75108380594779 1.3523417190192824
Ag -9.111602223745006 -8.75108380594779 4.0570251570578275
Ag -8.260703017754793 -11.369882284019367 -4.057025157057806
Ag -8.260703017754793 -11.369882284019367 -1.3523417190192628
Ag -8.260703017754793 -11.369882284019367 1.3523417190192824
Ag -8.260703017754793 -11.369882284019367 4.0570251570578275
Ag -5.507135345169866 -11.369882284019367 -4.057025157057806
Ag -5.507135345169866 -11.369882284019367 -1.3523417190192628
Ag -5.507135345169866 -11.369882284019367 1.3523417190192824
Ag -5.507135345169866 -11.369882284019367 4.0570251570578275
Ag -2.7535676725849374 -11.369882284019367 -4.057025157057806
Ag -2.7535676725849374 -11.369882284019367 -1.3523417190192628
Ag -2.7535676725849374 -11.369882284019367 1.3523417190192824
Ag -2.7535676725849374 -11.369882284019367 4.0570251570578275
Ag -1.0658141036401503e-14 -11.369882284019367 -4.057025157057806
Ag -1.0658141036401503e-14 -11.369882284019367 -1.3523417190192628
Ag -1.0658141036401503e-14 -11.369882284019367 1.3523417190192824
Ag -1.0658141036401503e-14 -11.369882284019367 4.0570251570578275
Ag 2.753567672584916 -11.369882284019367 -4.057025157057806
Ag 2.753567672584916 -11.369882284019367 -1.3523417190192628
Ag 2.753567672584916 -11.369882284019367 1.3523417190192824
Ag 2.753567672584916 -11.369882284019367 4.0570251570578275
Ag 5.507135345169845 -11.369882284019367 -4.057025157057806
Ag 5.507135345169845 -11.369882284019367 -1.3523417190192628
Ag 5.507135345169845 -11.369882284019367 1.3523417190192824
Ag 5.507135345169845 -11.369882284019367 4.0570251570578275
Ag 8.260703017754773 -11.369882284019369 -4.057025157057806
Ag 8.260703017754773 -11.369882284019369 -1.3523417190192628
Ag 8.260703017754773 -11.369882284019369 1.3523417190192824
Ag 8.260703017754773 -11.369882284019369 4.0570251570578275
Ag 9.111602223744987 -8.751083805947793 -4.057025157057806
Ag 9.111602223744987 -8.751083805947793 -1.3523417190192628
Ag 9.111602223744987 -8.751083805947793 1.3523417190192824
Ag 9.111602223744987 -8.751083805947793 4.0570251570578275
Ag 9.962501429735203 -6.132285327876218 -4.057025157057806
Ag 9.962501429735203 -6.132285327876218 -1.3523417190192628
Ag 9.962501429735203 -6.132285327876218 1.3523417190192824
Ag 9.962501429735203 -6.132285327876218 4.0570251570578275
Ag 10.813400635725417 -3.513486849804642 -4.057025157057806
Ag 10.813400635725417 -3.513486849804642 -1.3523417190192628
Ag 10.813400635725417 -3.513486849804642 1.3523417190192824
Ag 10.813400635725417 -3.513486849804642 4.0570251570578275
Ag 11.664299841715634 -0.8946883717330678 -4.057025157057806
Ag 11.664299841715634 -0.8946883717330678 -1.3523417190192628
Ag 11.664299841715634 -0.8946883717330678 1.3523417190192824
Ag 11.664299841715634 -0.8946883717330678 4.0570251570578275
Ag 12.515199047705847 1.7241101063385091 -4.057025157057806
Ag 12.515199047705847 1.7241101063385091 -1.3523417190192628
Ag 12.515199047705847 1.7241101063385091 1.3523417190192824
Ag 12.515199047705847 1.7241101063385091 4.0570251570578275
