71
Ag 100.0 %= 71 atomos, Cu 0.0 %= 0 atomos
Ag 0.0 -2.220446049250313e-15 -6.761708595096364
Ag 0.0 -2.220446049250313e-15 -4.0570251570578195
Ag 0.0 -2.220446049250313e-15 -1.3523417190192752
Ag 0.0 -2.220446049250313e-15 1.35234171901927
Ag 0.0 -2.220446049250313e-15 4.057025157057813
Ag 0.0 -2.220446049250313e-15 6.7617085950963585
Ag 2.2276830422826785 0.723818097401681 -5.409366876077092
Ag 2.2276830422826785 0.723818097401681 -2.704683438038547
Ag 2.2276830422826785 0.723818097401681 -2.6645352591003757e-15
Ag 2.2276830422826785 0.723818097401681 2.7046834380385434
Ag 2.2276830422826785 0.723818097401681 5.409366876077087
Ag 0.0 2.342324566536411 -5.409366876077092
Ag 0.0 2.342324566536411 -2.704683438038547
Ag 0.0 2.342324566536411 -2.6645352591003757e-15
Ag 0.0 2.342324566536411 2.7046834380385434
Ag 0.0 2.342324566536411 5.409366876077087
Ag -2.2276830422826777 0.7238180974016819 -5.409366876077092
Ag -2.2276830422826777 0.7238180974016819 -2.704683438038547
Ag -2.2276830422826777 0.7238180974016819 -2.6645352591003757e-15
Ag -2.2276830422826777 0.7238180974016819 2.7046834380385434
Ag -2.2276830422826777 0.7238180974016819 5.409366876077087
Ag -1.3767838362924638 -1.8949803806698935 -5.409366876077092
Ag -1.3767838362924638 -1.8949803806698935 -2.704683438038547
Ag -1.3767838362924638 -1.8949803806698935 -2.6645352591003757e-15
Ag -1.3767838362924638 -1.8949803806698935 2.7046834380385434
Ag -1.3767838362924638 -1.8949803806698935 5.409366876077087
Ag 1.3767838362924643 -1.894980380669894 -5.409366876077092
Ag 1.3767838362924643 -1.894980380669894 -2.704683438038547
Ag 1.3767838362924643 -1.894980380669894 -2.6645352591003757e-15
Ag 1.3767838362924643 -1.894980380669894 2.7046834380385434
Ag 1.3767838362924643 -1.894980380669894 5.409366876077087
Ag 4.455366084565355 1.4476361948033647 -4.0570251570578195
Ag 4.455366084565355 1.4476361948033647 -1.3523417190192752
Ag 4.455366084565355 1.4476361948033647 1.35234171901927
Ag 4.455366084565355 1.4476361948033647 4.057025157057813
Ag 2.2276830422826785 3.066142663938095 -4.0570251570578195
Ag 2.2276830422826785 3.066142663938095 -1.3523417190192752
Ag 2.2276830422826785 3.066142663938095 1.35234171901927
Ag 2.2276830422826785 3.066142663938095 4.057025157057813
Ag 0.0 4.684649133072827 -4.0570251570578195
Ag 0.0 4.684649133072827 -1.3523417190192752
Ag 0.0 4.684649133072827 1.35234171901927
Ag 0.0 4.684649133072827 4.057025157057813
Ag -2.2276830422826777 3.0661426639380966 -4.0570251570578195
Ag -2.2276830422826777 3.0661426639380966 -1.3523417190192752
Ag -2.2276830422826777 3.0661426639380966 1.35234171901927
Ag -2.2276830422826777 3.0661426639380966 4.057025157057813
Ag -4.455366084565355 1.4476361948033665 -4.0570251570578195
Ag -4.455366084565355 1.4476361948033665 -1.3523417190192752
Ag -4.455366084565355 1.4476361948033665 1.35234171901927
Ag -4.455366084565355 1.4476361948033665 4.057025157057813
Ag -3.604466878575142 -1.1711622832682091 -4.0570251570578195
Ag -3.604466878575142 -1.1711622832682091 -1.3523417190192752
Ag -3.604466878575142 -1.1711622832682091 1.35234171901927
Ag -3.604466878575142 -1.1711622832682091 4.057025157057813
Ag -2.7535676725849285 -3.7899607613397848 -4.0570251570578195
Ag -2.7535676725849285 -3.7899607613397848 -1.3523417190192752
Ag -2.7535676725849285 -3.7899607613397848 1.35234171901927
Ag -2.7535676725849285 -3.7899607613397848 4.057025157057813
Ag -8.881784197001252e-16 -3.7899607613397857 -4.0570251570578195
Ag -8.881784197001252e-16 -3.7899607613397857 -1.3523417190192752
Ag -8.881784197001252e-16 -3.7899607613397857 1.35234171901927
Ag -8.881784197001252e-16 -3.7899607613397857 4.057025157057813
Ag 2.7535676725849267 -3.7899607613397857 -4.0570251570578195
Ag 2.7535676725849267 -3.7899607613397857 -1.3523417190192752
Ag 2.7535676725849267 -3.7899607613397857 1.35234171901927
Ag 2.7535676725849267 -3.7899607613397857 4.057025157057813
Ag 3.60446687857514 -1.1711622832682105 -4.0570251570578195
Ag 3.60446687857514 -1.1711622832682105 -1.3523417190192752
Ag 3.60446687857514 -1.1711622832682105 1.35234171901927
Ag 3.60446687857514 -1.1711622832682105 4.057025157057813
