181
Ag 100.0 %= 181 atomos, Cu 0.0 %= 0 atomos
Ag -1.7763568394002505e-15 7.105427357601002e-15 -6.76170859509635
Ag -1.7763568394002505e-15 7.105427357601002e-15 -4.057025157057805
Ag -1.7763568394002505e-15 7.105427357601002e-15 -1.352341719019261
Ag -1.7763568394002505e-15 7.105427357601002e-15 1.3523417190192841
Ag -1.7763568394002505e-15 7.105427357601002e-15 4.0570251570578275
Ag -1.7763568394002505e-15 7.105427357601002e-15 6.761708595096373
Ag 2.227683042282674 0.7238180974016899 -5.409366876077078
Ag 2.227683042282674 0.7238180974016899 -2.7046834380385327
Ag 2.227683042282674 0.7238180974016899 1.1546319456101628e-14
Ag 2.227683042282674 0.7238180974016899 2.7046834380385576
Ag 2.227683042282674 0.7238180974016899 5.409366876077101
Ag -1.7763568394002505e-15 2.342324566536421 -5.409366876077078
Ag -1.7763568394002505e-15 2.342324566536421 -2.7046834380385327
Ag -1.7763568394002505e-15 2.342324566536421 1.1546319456101628e-14
Ag -1.7763568394002505e-15 2.342324566536421 2.7046834380385576
Ag -1.7763568394002505e-15 2.342324566536421 5.409366876077101
Ag -2.2276830422826794 0.7238180974016934 -5.409366876077078
Ag -2.2276830422826794 0.7238180974016934 -2.7046834380385327
Ag -2.2276830422826794 0.7238180974016934 1.1546319456101628e-14
Ag -2.2276830422826794 0.7238180974016934 2.7046834380385576
Ag -2.2276830422826794 0.7238180974016934 5.409366876077101
Ag -1.376783836292466 -1.8949803806698826 -5.409366876077078
Ag -1.376783836292466 -1.8949803806698826 -2.7046834380385327
Ag -1.376783836292466 -1.8949803806698826 1.1546319456101628e-14
Ag -1.376783836292466 -1.8949803806698826 2.7046834380385576
Ag -1.376783836292466 -1.8949803806698826 5.409366876077101
Ag 1.3767838362924607 -1.8949803806698826 -5.409366876077078
Ag 1.3767838362924607 -1.8949803806698826 -2.7046834380385327
Ag 1.3767838362924607 -1.8949803806698826 1.1546319456101628e-14
Ag 1.3767838362924607 -1.8949803806698826 2.7046834380385576
Ag 1.3767838362924607 -1.8949803806698826 5.409366876077101
Ag 4.4553660845653535 1.4476361948033745 -4.057025157057805
Ag 4.4553660845653535 1.4476361948033745 -1.352341719019261
Ag 4.4553660845653535 1.4476361948033745 1.3523417190192841
Ag 4.4553660845653535 1.4476361948033745 4.0570251570578275
Ag 2.227683042282674 3.0661426639381073 -4.057025157057805
Ag 2.227683042282674 3.0661426639381073 -1.352341719019261
Ag 2.227683042282674 3.0661426639381073 1.3523417190192841
Ag 2.227683042282674 3.0661426639381073 4.0570251570578275
Ag -1.7763568394002505e-15 4.684649133072837 -4.057025157057805
Ag -1.7763568394002505e-15 4.684649133072837 -1.352341719019261
Ag -1.7763568394002505e-15 4.684649133072837 1.3523417190192841
Ag -1.7763568394002505e-15 4.684649133072837 4.0570251570578275
Ag -2.2276830422826794 3.0661426639381073 -4.057025157057805
Ag -2.2276830422826794 3.0661426639381073 -1.352341719019261
Ag -2.2276830422826794 3.0661426639381073 1.3523417190192841
Ag -2.2276830422826794 3.0661426639381073 4.0570251570578275
Ag -4.455366084565358 1.4476361948033762 -4.057025157057805
Ag -4.455366084565358 1.4476361948033762 -1.352341719019261
Ag -4.455366084565358 1.4476361948033762 1.3523417190192841
Ag -4.455366084565358 1.4476361948033762 4.0570251570578275
Ag -3.6044668785751437 -1.171162283268199 -4.057025157057805
Ag -3.6044668785751437 -1.171162283268199 -1.352341719019261
Ag -3.6044668785751437 -1.171162283268199 1.3523417190192841
Ag -3.6044668785751437 -1.171162283268199 4.0570251570578275
Ag -2.7535676725849303 -3.789960761339775 -4.057025157057805
Ag -2.7535676725849303 -3.789960761339775 -1.352341719019261
Ag -2.7535676725849303 -3.789960761339775 1.3523417190192841
Ag -2.7535676725849303 -3.789960761339775 4.0570251570578275
Ag -1.7763568394002505e-15 -3.789960761339776 -4.057025157057805
Ag -1.7763568394002505e-15 -3.789960761339776 -1.352341719019261
Ag -1.7763568394002505e-15 -3.789960761339776 1.3523417190192841
Ag -1.7763568394002505e-15 -3.789960761339776 4.0570251570578275
Ag 2.7535676725849267 -3.789960761339776 -4.057025157057805
Ag 2.7535676725849267 -3.789960761339776 -1.352341719019261
Ag 2.7535676725849267 -3.789960761339776 1.3523417190192841
Ag 2.7535676725849267 -3.789960761339776 4.0570251570578275
Ag 3.6044668785751366 -1.171162283268199 -4.057025157057805
Ag 3.6044668785751366 -1.171162283268199 -1.352341719019261
Ag 3.6044668785751366 -1.171162283268199 1.3523417190192841
Ag 3.6044668785751366 -1.171162283268199 4.0570251570578275
Ag 6.683049126848031 2.171454292205061 -2.7046834380385327
Ag 6.683049126848031 2.171454292205061 1.1546319456101628e-14
Ag 6.683049126848031 2.171454292205061 2.7046834380385576
Ag 4.4553660845653535 3.7899607613397883 -2.7046834380385327
Ag 4.4553660845653535 3.7899607613397883 1.1546319456101628e-14
Ag 4.4553660845653535 3.7899607613397883 2.7046834380385576
Ag 2.2276830422826777 5.408467230474519 -2.7046834380385327
Ag 2.2276830422826777 5.408467230474519 1.1546319456101628e-14
Ag 2.2276830422826777 5.408467230474519 2.7046834380385576
Ag -1.7763568394002505e-15 7.026973699609252 -2.7046834380385327
Ag -1.7763568394002505e-15 7.026973699609252 1.1546319456101628e-14
Ag -1.7763568394002505e-15 7.026973699609252 2.7046834380385576
Ag -2.2276830422826794 5.408467230474519 -2.7046834380385327
Ag -2.2276830422826794 5.408467230474519 1.1546319456101628e-14
Ag -2.2276830422826794 5.408467230474519 2.7046834380385576
Ag -4.455366084565358 3.789960761339792 -2.7046834380385327
Ag -4.455366084565358 3.789960761339792 1.1546319456101628e-14
Ag -4.455366084565358 3.789960761339792 2.7046834380385576
Ag -6.683049126848036 2.171454292205061 -2.7046834380385327
Ag -6.683049126848036 2.171454292205061 1.1546319456101628e-14
Ag -6.683049126848036 2.171454292205061 2.7046834380385576
Ag -5.832149920857821 -0.44734418586651437 -2.7046834380385327
Ag -5.832149920857821 -0.44734418586651437 1.1546319456101628e-14
Ag -5.832149920857821 -0.44734418586651437 2.7046834380385576
Ag -4.981250714867609 -3.0661426639380895 -2.7046834380385327
Ag -4.981250714867609 -3.0661426639380895 1.1546319456101628e-14
Ag -4.981250714867609 -3.0661426639380895 2.7046834380385576
Ag -4.130351508877394 -5.6849411420096665 -2.7046834380385327
Ag -4.130351508877394 -5.6849411420096665 1.1546319456101628e-14
Ag -4.130351508877394 -5.6849411420096665 2.7046834380385576
Ag -1.376783836292466 -5.6849411420096665 -2.7046834380385327
Ag -1.376783836292466 -5.6849411420096665 1.1546319456101628e-14
Ag -1.376783836292466 -5.6849411420096665 2.7046834380385576
Ag 1.3767838362924607 -5.6849411420096665 -2.7046834380385327
Ag 1.3767838362924607 -5.6849411420096665 1.1546319456101628e-14
Ag 1.3767838362924607 -5.6849411420096665 2.7046834380385576
Ag 4.130351508877389 -5.6849411420096665 -2.7046834380385327
Ag 4.130351508877389 -5.6849411420096665 1.1546319456101628e-14
Ag 4.130351508877389 -5.6849411420096665 2.7046834380385576
Ag 4.981250714867601 -3.066142663938092 -2.7046834380385327
Ag 4.981250714867601 -3.066142663938092 1.1546319456101628e-14
Ag 4.981250714867601 -3.066142663938092 2.7046834380385576
Ag 5.832149920857818 -0.4473441858665179 -2.7046834380385327
Ag 5.832149920857818 -0.4473441858665179 1.1546319456101628e-14
Ag 5.832149920857818 -0.4473441858665179 2.7046834380385576
Ag 8.910732169130712 2.895272389606742 -1.352341719019261
Ag 8.910732169130712 2.895272389606742 1.3523417190192841
Ag 6.683049126848031 4.513778858741473 -1.352341719019261
Ag 6.683049126848031 4.513778858741473 1.3523417190192841
Ag 4.4553660845653535 6.1322853278762 -1.352341719019261
Ag 4.4553660845653535 6.1322853278762 1.3523417190192841
Ag 2.2276830422826777 7.750791797010935 -1.352341719019261
Ag 2.2276830422826777 7.750791797010935 1.3523417190192841
Ag -1.7763568394002505e-15 9.369298266145664 -1.352341719019261
Ag -1.7763568394002505e-15 9.369298266145664 1.3523417190192841
Ag -2.2276830422826794 7.750791797010935 -1.352341719019261
Ag -2.2276830422826794 7.750791797010935 1.3523417190192841
Ag -4.455366084565358 6.132285327876206 -1.352341719019261
Ag -4.455366084565358 6.132285327876206 1.3523417190192841
Ag -6.683049126848036 4.513778858741475 -1.352341719019261
Ag -6.683049126848036 4.513778858741475 1.3523417190192841
Ag -8.910732169130712 2.895272389606747 -1.352341719019261
Ag -8.910732169130712 2.895272389606747 1.3523417190192841
Ag -8.0598329631405 0.2764739115351684 -1.352341719019261
Ag -8.0598329631405 0.2764739115351684 1.3523417190192841
Ag -7.208933757150286 -2.342324566536406 -1.352341719019261
Ag -7.208933757150286 -2.342324566536406 1.3523417190192841
Ag -6.358034551160071 -4.961123044607982 -1.352341719019261
Ag -6.358034551160071 -4.961123044607982 1.3523417190192841
Ag -5.507135345169859 -7.579921522679557 -1.352341719019261
Ag -5.507135345169859 -7.579921522679557 1.3523417190192841
Ag -2.7535676725849303 -7.579921522679559 -1.352341719019261
Ag -2.7535676725849303 -7.579921522679559 1.3523417190192841
Ag -3.552713678800501e-15 -7.579921522679559 -1.352341719019261
Ag -3.552713678800501e-15 -7.579921522679559 1.3523417190192841
Ag 2.753567672584923 -7.579921522679559 -1.352341719019261
Ag 2.753567672584923 -7.579921522679559 1.3523417190192841
Ag 5.507135345169852 -7.579921522679559 -1.352341719019261
Ag 5.507135345169852 -7.579921522679559 1.3523417190192841
Ag 6.358034551160069 -4.961123044607984 -1.352341719019261
Ag 6.358034551160069 -4.961123044607984 1.3523417190192841
Ag 7.208933757150282 -2.3423245665364085 -1.352341719019261
Ag 7.208933757150282 -2.3423245665364085 1.3523417190192841
Ag 8.059832963140499 0.2764739115351684 -1.352341719019261
Ag 8.059832963140499 0.2764739115351684 1.3523417190192841
Ag 11.138415211413387 3.6190904870084246 1.1546319456101628e-14
Ag 8.910732169130712 5.237596956143156 1.1546319456101628e-14
Ag 6.683049126848031 6.8561034252778885 1.1546319456101628e-14
Ag 4.4553660845653535 8.474609894412618 1.1546319456101628e-14
Ag 2.2276830422826777 10.093116363547347 1.1546319456101628e-14
Ag -1.7763568394002505e-15 11.711622832682076 1.1546319456101628e-14
Ag -2.2276830422826794 10.09311636354735 1.1546319456101628e-14
Ag -4.455366084565356 8.474609894412618 1.1546319456101628e-14
Ag -6.683049126848036 6.856103425277892 1.1546319456101628e-14
Ag -8.910732169130712 5.237596956143161 1.1546319456101628e-14
Ag -11.13841521141339 3.61909048700843 1.1546319456101628e-14
Ag -10.287516005423177 1.0002920089368548 1.1546319456101628e-14
Ag -9.436616799432965 -1.6185064691347222 1.1546319456101628e-14
Ag -8.58571759344275 -4.237304947206297 1.1546319456101628e-14
Ag -7.7348183874525365 -6.8561034252778725 1.1546319456101628e-14
Ag -6.883919181462323 -9.474901903349448 1.1546319456101628e-14
Ag -4.1303515088773946 -9.47490190334945 1.1546319456101628e-14
Ag -1.376783836292466 -9.47490190334945 1.1546319456101628e-14
Ag 1.376783836292459 -9.47490190334945 1.1546319456101628e-14
Ag 4.130351508877389 -9.47490190334945 1.1546319456101628e-14
Ag 6.883919181462316 -9.47490190334945 1.1546319456101628e-14
Ag 7.734818387452529 -6.856103425277875 1.1546319456101628e-14
Ag 8.585717593442743 -4.237304947206299 1.1546319456101628e-14
Ag 9.436616799432956 -1.6185064691347248 1.1546319456101628e-14
Ag 10.28751600542317 1.0002920089368512 1.1546319456101628e-14
