54
Ag 100.0 %= 54 atomos, Cu 0.0 %= 0 atomos
Ag 0.0 -1.7763568394002505e-15 -4.057025157057815
Ag 0.0 -1.7763568394002505e-15 -1.3523417190192708
Ag 0.0 -1.7763568394002505e-15 1.3523417190192735
Ag 0.0 -1.7763568394002505e-15 4.057025157057819
Ag 2.2276830422826768 0.7238180974016819 -2.704683438038543
Ag 2.2276830422826768 0.7238180974016819 1.7763568394002505e-15
Ag 2.2276830422826768 0.7238180974016819 2.704683438038546
Ag 0.0 2.342324566536411 -2.704683438038543
Ag 0.0 2.342324566536411 1.7763568394002505e-15
Ag 0.0 2.342324566536411 2.704683438038546
Ag -2.2276830422826777 0.7238180974016837 -2.704683438038543
Ag -2.2276830422826777 0.7238180974016837 1.7763568394002505e-15
Ag -2.2276830422826777 0.7238180974016837 2.704683438038546
Ag -1.3767838362924651 -1.8949803806698928 -2.704683438038543
Ag -1.3767838362924651 -1.8949803806698928 1.7763568394002505e-15
Ag -1.3767838362924651 -1.8949803806698928 2.704683438038546
Ag 1.3767838362924616 -1.8949803806698928 -2.704683438038543
Ag 1.3767838362924616 -1.8949803806698928 1.7763568394002505e-15
Ag 1.3767838362924616 -1.8949803806698928 2.704683438038546
Ag 4.455366084565354 1.4476361948033665 -1.3523417190192708
Ag 4.455366084565354 1.4476361948033665 1.3523417190192735
Ag 2.2276830422826768 3.0661426639380975 -1.3523417190192708
Ag 2.2276830422826768 3.0661426639380975 1.3523417190192735
Ag 0.0 4.684649133072829 -1.3523417190192708
Ag 0.0 4.684649133072829 1.3523417190192735
Ag -2.2276830422826777 3.0661426639380975 -1.3523417190192708
Ag -2.2276830422826777 3.0661426639380975 1.3523417190192735
Ag -4.455366084565355 1.4476361948033674 -1.3523417190192708
Ag -4.455366084565355 1.4476361948033674 1.3523417190192735
Ag -3.604466878575142 -1.1711622832682087 -1.3523417190192708
Ag -3.604466878575142 -1.1711622832682087 1.3523417190192735
Ag -2.7535676725849285 -3.789960761339784 -1.3523417190192708
Ag -2.7535676725849285 -3.789960761339784 1.3523417190192735
Ag -1.7763568394002505e-15 -3.7899607613397848 -1.3523417190192708
Ag -1.7763568394002505e-15 -3.7899607613397848 1.3523417190192735
Ag 2.7535676725849276 -3.7899607613397848 -1.3523417190192708
Ag 2.7535676725849276 -3.7899607613397848 1.3523417190192735
Ag 3.6044668785751393 -1.1711622832682096 -1.3523417190192708
Ag 3.6044668785751393 -1.1711622832682096 1.3523417190192735
Ag 6.683049126848034 2.17145429220505 1.7763568394002505e-15
Ag 4.455366084565354 3.7899607613397803 1.7763568394002505e-15
Ag 2.2276830422826785 5.408467230474511 1.7763568394002505e-15
Ag 8.881784197001252e-16 7.026973699609241 1.7763568394002505e-15
Ag -2.2276830422826777 5.408467230474511 1.7763568394002505e-15
Ag -4.455366084565355 3.7899607613397803 1.7763568394002505e-15
Ag -6.683049126848034 2.171454292205051 1.7763568394002505e-15
Ag -5.83214992085782 -0.44734418586652414 1.7763568394002505e-15
Ag -4.981250714867607 -3.0661426639380993 1.7763568394002505e-15
Ag -4.130351508877393 -5.684941142009675 1.7763568394002505e-15
Ag -1.3767838362924651 -5.684941142009675 1.7763568394002505e-15
Ag 1.3767838362924616 -5.684941142009675 1.7763568394002505e-15
Ag 4.13035150887739 -5.684941142009676 1.7763568394002505e-15
Ag 4.981250714867605 -3.066142663938101 1.7763568394002505e-15
Ag 5.8321499208578205 -0.4473441858665259 1.7763568394002505e-15
