23
Ag 100.0 %= 23 atomos, Cu 0.0 %= 0 atomos
Ag 0.0 0.0 -2.704683438038544
Ag 0.0 0.0 4.440892098500626e-16
Ag 0.0 0.0 2.7046834380385447
Ag 2.2276830422826785 0.7238180974016832 -1.3523417190192717
Ag 2.2276830422826785 0.7238180974016832 1.352341719019273
Ag 0.0 2.3423245665364134 -1.3523417190192717
Ag 0.0 2.3423245665364134 1.352341719019273
Ag -2.2276830422826777 0.7238180974016841 -1.3523417190192717
Ag -2.2276830422826777 0.7238180974016841 1.352341719019273
Ag -1.3767838362924638 -1.8949803806698913 -1.3523417190192717
Ag -1.3767838362924638 -1.8949803806698913 1.352341719019273
Ag 1.3767838362924643 -1.8949803806698917 -1.3523417190192717
Ag 1.3767838362924643 -1.8949803806698917 1.352341719019273
Ag 4.455366084565355 1.447636194803367 4.440892098500626e-16
Ag 2.2276830422826785 3.066142663938097 4.440892098500626e-16
Ag 0.0 4.6846491330728295 4.440892098500626e-16
Ag -2.2276830422826777 3.066142663938099 4.440892098500626e-16
Ag -4.455366084565355 1.4476361948033687 4.440892098500626e-16
Ag -3.604466878575142 -1.171162283268207 4.440892098500626e-16
Ag -2.7535676725849285 -3.7899607613397825 4.440892098500626e-16
Ag -8.881784197001252e-16 -3.7899607613397834 4.440892098500626e-16
Ag 2.7535676725849267 -3.7899607613397834 4.440892098500626e-16
Ag 3.60446687857514 -1.1711622832682083 4.440892098500626e-16
