38
Ag 100.0 %= 38 atomos, Cu 0.0 %= 0 atomos
Ag -3.8250000000000015 -1.9125000000000012 8.881784197001252e-16
Ag -3.8250000000000015 -8.881784197001252e-16 -1.9124999999999994
Ag -3.8250000000000015 -8.881784197001252e-16 1.912500000000001
Ag -3.8250000000000015 1.9124999999999992 8.881784197001252e-16
Ag -1.9125000000000012 -3.8250000000000015 8.881784197001252e-16
Ag -8.881784197001252e-16 -3.8250000000000015 -1.9124999999999994
Ag -8.881784197001252e-16 -3.8250000000000015 1.912500000000001
Ag -1.9125000000000012 -8.881784197001252e-16 -3.8249999999999997
Ag -8.881784197001252e-16 -1.9125000000000012 -3.8249999999999997
Ag -1.9125000000000012 -1.9125000000000012 -1.9124999999999994
Ag -1.9125000000000012 -8.881784197001252e-16 8.881784197001252e-16
Ag -8.881784197001252e-16 -1.9125000000000012 8.881784197001252e-16
Ag -8.881784197001252e-16 -8.881784197001252e-16 -1.9124999999999994
Ag -1.9125000000000012 -1.9125000000000012 1.912500000000001
Ag -1.9125000000000012 -8.881784197001252e-16 3.8250000000000015
Ag -8.881784197001252e-16 -1.9125000000000012 3.8250000000000015
Ag -8.881784197001252e-16 -8.881784197001252e-16 1.912500000000001
Ag -8.881784197001252e-16 1.9124999999999992 -3.8249999999999997
Ag -1.9125000000000012 1.9124999999999992 -1.9124999999999994
Ag -1.9125000000000012 3.8249999999999997 8.881784197001252e-16
Ag -8.881784197001252e-16 1.9124999999999992 8.881784197001252e-16
Ag -8.881784197001252e-16 3.8249999999999997 -1.9124999999999994
Ag -1.9125000000000012 1.9124999999999992 1.912500000000001
Ag -8.881784197001252e-16 1.9124999999999992 3.8250000000000015
Ag -8.881784197001252e-16 3.8249999999999997 1.912500000000001
Ag 1.9124999999999992 -3.8250000000000015 8.881784197001252e-16
Ag 1.9124999999999992 -8.881784197001252e-16 -3.8249999999999997
Ag 1.9124999999999992 -1.9125000000000012 -1.9124999999999994
Ag 1.9124999999999992 -8.881784197001252e-16 8.881784197001252e-16
Ag 3.8249999999999997 -1.9125000000000012 8.881784197001252e-16
Ag 3.8249999999999997 -8.881784197001252e-16 -1.9124999999999994
Ag 1.9124999999999992 -1.9125000000000012 1.912500000000001
Ag 1.9124999999999992 -8.881784197001252e-16 3.8250000000000015
Ag 3.8249999999999997 -8.881784197001252e-16 1.912500000000001
Ag 1.9124999999999992 1.9124999999999992 -1.9124999999999994
Ag 1.9124999999999992 3.8249999999999997 8.881784197001252e-16
Ag 3.8249999999999997 1.9124999999999992 8.881784197001252e-16
Ag 1.9124999999999992 1.9124999999999992 1.912500000000001
